*HEADING
cubit(l_tests/AdvectionSim/SurfaceData/Ohaaki/Ohaaki1Eighth.inp): 12/21/2011: 10
version: 13.0
**
********************************** P A R T S **********************************
*PART, NAME=Part-Default
**
********************************** N O D E S **********************************
*NODE, NSET=ALLNODES
       1,    1.840000e+00,    1.070000e+00,   -2.000000e-01
       2,    1.840000e+00,    3.500000e-01,   -2.000000e-01
       3,    1.840000e+00,    9.671429e-01,   -2.000000e-01
       4,    1.840000e+00,    8.642857e-01,   -2.000000e-01
       5,    1.840000e+00,    7.614286e-01,   -2.000000e-01
       6,    1.840000e+00,    6.585714e-01,   -2.000000e-01
       7,    1.840000e+00,    5.557143e-01,   -2.000000e-01
       8,    1.840000e+00,    4.528571e-01,   -2.000000e-01
       9,    1.120000e+00,    3.500000e-01,   -2.000000e-01
      10,    1.737143e+00,    3.500000e-01,   -2.000000e-01
      11,    1.634286e+00,    3.500000e-01,   -2.000000e-01
      12,    1.531429e+00,    3.500000e-01,   -2.000000e-01
      13,    1.428571e+00,    3.500000e-01,   -2.000000e-01
      14,    1.325714e+00,    3.500000e-01,   -2.000000e-01
      15,    1.222857e+00,    3.500000e-01,   -2.000000e-01
      16,    1.120000e+00,    1.070000e+00,   -2.000000e-01
      17,    1.120000e+00,    4.528571e-01,   -2.000000e-01
      18,    1.120000e+00,    5.557143e-01,   -2.000000e-01
      19,    1.120000e+00,    6.585714e-01,   -2.000000e-01
      20,    1.120000e+00,    7.614286e-01,   -2.000000e-01
** ... 364 like lines cut
**
********************************** E L E M E N T S ****************************
*ELEMENT, TYPE=C3D8R, ELSET=Fracture_Floor
       1,      80,     129,     143,      86,      87,     131,     157,     123
       2,     129,       9,      17,     143,     131,      15,      64,     157
       3,      86,     143,     142,      85,     123,     157,     158,     124
       4,     143,      17,      18,     142,     157,      64,      63,     158
       5,      85,     142,     141,      84,     124,     158,     159,     125
       6,     142,      18,      19,     141,     158,      63,      62,     159
       7,      84,     141,     140,      83,     125,     159,     160,     126
       8,     141,      19,      20,     140,     159,      62,      61,     160
       9,      83,     140,     139,      82,     126,     160,     161,     127
      10,     140,      20,      21,     139,     160,      61,      60,     161
      11,      82,     139,     138,      81,     127,     161,     162,     128
      12,     139,      21,      22,     138,     161,      60,      59,     162
      13,      81,     138,     137,      73,     128,     162,     150,      79
      14,     138,      22,      16,     137,     162,      59,      23,     150
      15,      87,     131,     157,     123,      88,     132,     163,     117
      16,     131,      15,      64,     157,     132,      14,      58,     163
      17,     123,     157,     158,     124,     117,     163,     164,     118
      18,     157,      64,      63,     158,     163,      58,      57,     164
      19,     124,     158,     159,     125,     118,     164,     165,     119
      20,     158,      63,      62,     159,     164,      57,      56,     165
** ... 78 like lines cut
*ELEMENT, TYPE=C3D8R, ELSET=Fracture_Roof
      99,     196,     249,     336,     218,     219,     325,     349,     283
     100,     249,     199,     237,     336,     325,     236,     324,     349
     101,     218,     336,     335,     217,     283,     349,     350,     284
     102,     336,     237,     238,     335,     349,     324,     323,     350
     103,     217,     335,     334,     216,     284,     350,     351,     285
     104,     335,     238,     239,     334,     350,     323,     322,     351
     105,     216,     334,     333,     215,     285,     351,     352,     286
     106,     334,     239,     240,     333,     351,     322,     321,     352
     107,     215,     333,     332,     214,     286,     352,     353,     287
     108,     333,     240,     241,     332,     352,     321,     320,     353
     109,     214,     332,     331,     213,     287,     353,     354,     288
     110,     332,     241,     242,     331,     353,     320,     319,     354
     111,     213,     331,     251,     195,     288,     354,     342,     212
     112,     331,     242,     200,     251,     354,     319,     243,     342
     113,     219,     325,     349,     283,     220,     326,     355,     277
     114,     325,     236,     324,     349,     326,     235,     318,     355
     115,     283,     349,     350,     284,     277,     355,     356,     278
     116,     349,     324,     323,     350,     355,     318,     317,     356
     117,     284,     350,     351,     285,     278,     356,     357,     279
     118,     350,     323,     322,     351,     356,     317,     316,     357
** ... 78 like lines cut
**
********************************** N O D E S E T S **********************************
*NSET, NSET=Xmin_Floor
       9,      16,      17,      18,      19,      20,
      21,      22,      73,      80,      81,      82,
      83,      84,      85,      86,     129,     137,
     138,     139,     140,     141,     142,     143,
*NSET, NSET=Xmax_Floor
       1,       2,       3,       4,       5,       6,
       7,       8,      65,      66,      67,      68,
      69,      70,      71,      72,     130,     144,
     151,     152,     153,     154,     155,     156,
*NSET, NSET=Ymin_Floor
       2,       9,      10,      11,      12,      13,
      14,      15,      65,      80,      87,      88,
      89,      90,      91,      92,     129,     130,
     131,     132,     133,     134,     135,     136,
*NSET, NSET=Ymax_Floor
       1,      16,      23,      24,      25,      26,
      27,      28,      66,      73,      74,      75,
      76,      77,      78,      79,     137,     144,
     145,     146,     147,     148,     149,     150,
*NSET, NSET=Zmin_Floor
       1,       2,       3,       4,       5,       6,
       7,       8,       9,      10,      11,      12,
      13,      14,      15,      16,      17,      18,
      19,      20,      21,      22,      23,      24,
      25,      26,      27,      28,      29,      30,
      31,      32,      33,      34,      35,      36,
      37,      38,      39,      40,      41,      42,
      43,      44,      45,      46,      47,      48,
      49,      50,      51,      52,      53,      54,
      55,      56,      57,      58,      59,      60,
      61,      62,      63,      64,
*NSET, NSET=Zmax_Floor
      65,      66,      67,      68,      69,      70,
      71,      72,      73,      74,      75,      76,
      77,      78,      79,      80,      81,      82,
      83,      84,      85,      86,      87,      88,
      89,      90,      91,      92,      93,      94,
      95,      96,      97,      98,      99,     100,
     101,     102,     103,     104,     105,     106,
     107,     108,     109,     110,     111,     112,
     113,     114,     115,     116,     117,     118,
     119,     120,     121,     122,     123,     124,
     125,     126,     127,     128,
*NSET, NSET=XmaxZmax_Floor
      73,      80,      81,      82,      83,      84,
      85,      86,
*NSET, NSET=XminZmax_Floor
      65,      66,      67,      68,      69,      70,
      71,      72,
*NSET, NSET=YmaxZmax_Floor
      66,      73,      74,      75,      76,      77,
      78,      79,
*NSET, NSET=YminZmax_Floor
      65,      80,      87,      88,      89,      90,
      91,      92,
*NSET, NSET=Xmin_Roof
     195,     196,     199,     200,     213,     214,
     215,     216,     217,     218,     237,     238,
     239,     240,     241,     242,     249,     251,
     331,     332,     333,     334,     335,     336,
*NSET, NSET=Xmax_Roof
     193,     194,     197,     198,     201,     202,
     203,     204,     205,     206,     225,     226,
     227,     228,     229,     230,     250,     252,
     343,     344,     345,     346,     347,     348,
*NSET, NSET=Ymin_Roof
     193,     196,     198,     199,     219,     220,
     221,     222,     223,     224,     231,     232,
     233,     234,     235,     236,     249,     250,
     325,     326,     327,     328,     329,     330,
*NSET, NSET=Ymax_Roof
     194,     195,     197,     200,     207,     208,
     209,     210,     211,     212,     243,     244,
     245,     246,     247,     248,     251,     252,
     337,     338,     339,     340,     341,     342,
*NSET, NSET=Zmin_Roof
     197,     198,     199,     200,     225,     226,
     227,     228,     229,     230,     231,     232,
     233,     234,     235,     236,     237,     238,
     239,     240,     241,     242,     243,     244,
     245,     246,     247,     248,     289,     290,
     291,     292,     293,     294,     295,     296,
     297,     298,     299,     300,     301,     302,
     303,     304,     305,     306,     307,     308,
     309,     310,     311,     312,     313,     314,
     315,     316,     317,     318,     319,     320,
     321,     322,     323,     324,
*NSET, NSET=Zmax_Roof
     193,     194,     195,     196,     201,     202,
     203,     204,     205,     206,     207,     208,
     209,     210,     211,     212,     213,     214,
     215,     216,     217,     218,     219,     220,
     221,     222,     223,     224,     253,     254,
     255,     256,     257,     258,     259,     260,
     261,     262,     263,     264,     265,     266,
     267,     268,     269,     270,     271,     272,
     273,     274,     275,     276,     277,     278,
     279,     280,     281,     282,     283,     284,
     285,     286,     287,     288,
*NSET, NSET=YminZmin_Roof
     198,     199,     231,     232,     233,     234,
     235,     236,
*NSET, NSET=YmaxZmin_Roof
     197,     200,     243,     244,     245,     246,
     247,     248,
*NSET, NSET=Fracture_Floor
       1,       2,       3,       4,       5,       6,
       7,       8,       9,      10,      11,      12,
      13,      14,      15,      16,      17,      18,
      19,      20,      21,      22,      23,      24,
      25,      26,      27,      28,      29,      30,
      31,      32,      33,      34,      35,      36,
      37,      38,      39,      40,      41,      42,
      43,      44,      45,      46,      47,      48,
      49,      50,      51,      52,      53,      54,
      55,      56,      57,      58,      59,      60,
      61,      62,      63,      64,      65,      66,
      67,      68,      69,      70,      71,      72,
      73,      74,      75,      76,      77,      78,
      79,      80,      81,      82,      83,      84,
      85,      86,      87,      88,      89,      90,
      91,      92,      93,      94,      95,      96,
      97,      98,      99,     100,     101,     102,
     103,     104,     105,     106,     107,     108,
     109,     110,     111,     112,     113,     114,
     115,     116,     117,     118,     119,     120,
** ... 12 like lines cut
*NSET, NSET=Fracture_Roof
     193,     194,     195,     196,     197,     198,
     199,     200,     201,     202,     203,     204,
     205,     206,     207,     208,     209,     210,
     211,     212,     213,     214,     215,     216,
     217,     218,     219,     220,     221,     222,
     223,     224,     225,     226,     227,     228,
     229,     230,     231,     232,     233,     234,
     235,     236,     237,     238,     239,     240,
     241,     242,     243,     244,     245,     246,
     247,     248,     249,     250,     251,     252,
     253,     254,     255,     256,     257,     258,
     259,     260,     261,     262,     263,     264,
     265,     266,     267,     268,     269,     270,
     271,     272,     273,     274,     275,     276,
     277,     278,     279,     280,     281,     282,
     283,     284,     285,     286,     287,     288,
     289,     290,     291,     292,     293,     294,
     295,     296,     297,     298,     299,     300,
     301,     302,     303,     304,     305,     306,
     307,     308,     309,     310,     311,     312,
** ... 12 like lines cut
**
********************************** P R O P E R T I E S ************************
*SOLID SECTION, ELSET=Fracture_Floor, MATERIAL=Default-Steel
*SOLID SECTION, ELSET=Fracture_Roof, MATERIAL=Default-Steel
**
*END PART
**
**
**
********************************** E N D   P A R T S **********************************
**
**
********************************** A S S E M B L Y ************************************
**
*ASSEMBLY, NAME=ASSEMBLY1
**
*INSTANCE, NAME=Part-Default_1, PART=Part-Default
*END INSTANCE
**
*END ASSEMBLY
**
**
**
*MATERIAL, NAME = Default-Steel
*ELASTIC, TYPE=ISOTROPIC
2.068000e+05, 2.900000e-01
*DENSITY
7.000000e-06
*CONDUCTIVITY,TYPE=ISO
4.500000e-02
*SPECIFIC HEAT
5.000000e+02
**
**
************************************** H I S T O R Y *************************************
**
*PREPRINT
**
**************************************** S T E P 1 ***************************************
*STEP,INC=100,NAME=Default Set
**
*STATIC
1, 1, 1e-05, 1
**
**
**
**
*END STEP
