*HEADING
cubit(ll_tests/AdvectionSim/SurfaceData/Ohaaki/Ohaaki1Small.inp): 12/20/2011: 10
version: 13.0
**
********************************** P A R T S **********************************
*PART, NAME=Part-Default
**
********************************** N O D E S **********************************
*NODE, NSET=ALLNODES
       1,    2.960000e+00,    1.420000e+00,   -2.000000e-01
       2,    2.960000e+00,    0.000000e+00,   -2.000000e-01
       3,    2.960000e+00,    1.318571e+00,   -2.000000e-01
       4,    2.960000e+00,    1.217143e+00,   -2.000000e-01
       5,    2.960000e+00,    1.115714e+00,   -2.000000e-01
       6,    2.960000e+00,    1.014286e+00,   -2.000000e-01
       7,    2.960000e+00,    9.128571e-01,   -2.000000e-01
       8,    2.960000e+00,    8.114286e-01,   -2.000000e-01
       9,    2.960000e+00,    7.100000e-01,   -2.000000e-01
      10,    2.960000e+00,    6.085714e-01,   -2.000000e-01
      11,    2.960000e+00,    5.071429e-01,   -2.000000e-01
      12,    2.960000e+00,    4.057143e-01,   -2.000000e-01
      13,    2.960000e+00,    3.042857e-01,   -2.000000e-01
      14,    2.960000e+00,    2.028571e-01,   -2.000000e-01
      15,    2.960000e+00,    1.014286e-01,   -2.000000e-01
      16,    0.000000e+00,    0.000000e+00,   -2.000000e-01
      17,    2.861333e+00,    0.000000e+00,   -2.000000e-01
      18,    2.762667e+00,    0.000000e+00,   -2.000000e-01
      19,    2.664000e+00,    0.000000e+00,   -2.000000e-01
      20,    2.565333e+00,    0.000000e+00,   -2.000000e-01
** ... 2770 like lines cut
**
********************************** E L E M E N T S ****************************
*ELEMENT, TYPE=C3D8R, ELSET=Fracture_Floor
       1,     511,     931,     975,     524,     525,     933,    1019,     918
       2,     931,      16,      47,     975,     933,      45,     465,    1019
       3,     524,     975,     974,     523,     918,    1019,    1020,     919
       4,     975,      47,      48,     974,    1019,     465,     464,    1020
       5,     523,     974,     973,     522,     919,    1020,    1021,     920
       6,     974,      48,      49,     973,    1020,     464,     463,    1021
       7,     522,     973,     972,     521,     920,    1021,    1022,     921
       8,     973,      49,      50,     972,    1021,     463,     462,    1022
       9,     521,     972,     971,     520,     921,    1022,    1023,     922
      10,     972,      50,      51,     971,    1022,     462,     461,    1023
      11,     520,     971,     970,     519,     922,    1023,    1024,     923
      12,     971,      51,      52,     970,    1023,     461,     460,    1024
      13,     519,     970,     969,     518,     923,    1024,    1025,     924
      14,     970,      52,      53,     969,    1024,     460,     459,    1025
      15,     518,     969,     968,     517,     924,    1025,    1026,     925
      16,     969,      53,      54,     968,    1025,     459,     458,    1026
      17,     517,     968,     967,     516,     925,    1026,    1027,     926
      18,     968,      54,      55,     967,    1026,     458,     457,    1027
      19,     516,     967,     966,     515,     926,    1027,    1028,     927
      20,     967,      55,      56,     966,    1027,     457,     456,    1028
** ... 820 like lines cut
*ELEMENT, TYPE=C3D8R, ELSET=Fracture_Roof
     841,    1399,    1572,    2371,    1458,    1459,    2330,    2414,    1940
     842,    1572,    1402,    1530,    2371,    2330,    1529,    2329,    2414
     843,    1458,    2371,    2370,    1457,    1940,    2414,    2415,    1941
     844,    2371,    1530,    1531,    2370,    2414,    2329,    2328,    2415
     845,    1457,    2370,    2369,    1456,    1941,    2415,    2416,    1942
     846,    2370,    1531,    1532,    2369,    2415,    2328,    2327,    2416
     847,    1456,    2369,    2368,    1455,    1942,    2416,    2417,    1943
     848,    2369,    1532,    1533,    2368,    2416,    2327,    2326,    2417
     849,    1455,    2368,    2367,    1454,    1943,    2417,    2418,    1944
     850,    2368,    1533,    1534,    2367,    2417,    2326,    2325,    2418
     851,    1454,    2367,    2366,    1453,    1944,    2418,    2419,    1945
     852,    2367,    1534,    1535,    2366,    2418,    2325,    2324,    2419
     853,    1453,    2366,    2365,    1452,    1945,    2419,    2420,    1946
     854,    2366,    1535,    1536,    2365,    2419,    2324,    2323,    2420
     855,    1452,    2365,    2364,    1451,    1946,    2420,    2421,    1947
     856,    2365,    1536,    1537,    2364,    2420,    2323,    2322,    2421
     857,    1451,    2364,    2363,    1450,    1947,    2421,    2422,    1948
     858,    2364,    1537,    1538,    2363,    2421,    2322,    2321,    2422
     859,    1450,    2363,    2362,    1449,    1948,    2422,    2423,    1949
     860,    2363,    1538,    1539,    2362,    2422,    2321,    2320,    2423
** ... 820 like lines cut
**
********************************** N O D E S E T S **********************************
*NSET, NSET=Xmin_Floor
      16,      46,      47,      48,      49,      50,
      51,      52,      53,      54,      55,      56,
      57,      58,      59,     481,     511,     512,
     513,     514,     515,     516,     517,     518,
     519,     520,     521,     522,     523,     524,
     931,     962,     963,     964,     965,     966,
     967,     968,     969,     970,     971,     972,
     973,     974,     975,
*NSET, NSET=Xmax_Floor
       1,       2,       3,       4,       5,       6,
       7,       8,       9,      10,      11,      12,
      13,      14,      15,     466,     467,     468,
     469,     470,     471,     472,     473,     474,
     475,     476,     477,     478,     479,     480,
     932,     976,    1006,    1007,    1008,    1009,
    1010,    1011,    1012,    1013,    1014,    1015,
    1016,    1017,    1018,
*NSET, NSET=Ymin_Floor
       2,      16,      17,      18,      19,      20,
      21,      22,      23,      24,      25,      26,
      27,      28,      29,      30,      31,      32,
      33,      34,      35,      36,      37,      38,
      39,      40,      41,      42,      43,      44,
      45,     466,     511,     525,     526,     527,
     528,     529,     530,     531,     532,     533,
     534,     535,     536,     537,     538,     539,
     540,     541,     542,     543,     544,     545,
     546,     547,     548,     549,     550,     551,
     552,     553,     931,     932,     933,     934,
     935,     936,     937,     938,     939,     940,
     941,     942,     943,     944,     945,     946,
     947,     948,     949,     950,     951,     952,
     953,     954,     955,     956,     957,     958,
     959,     960,     961,
*NSET, NSET=Ymax_Floor
       1,      46,      60,      61,      62,      63,
      64,      65,      66,      67,      68,      69,
      70,      71,      72,      73,      74,      75,
      76,      77,      78,      79,      80,      81,
      82,      83,      84,      85,      86,      87,
      88,     467,     481,     482,     483,     484,
     485,     486,     487,     488,     489,     490,
     491,     492,     493,     494,     495,     496,
     497,     498,     499,     500,     501,     502,
     503,     504,     505,     506,     507,     508,
     509,     510,     962,     976,     977,     978,
     979,     980,     981,     982,     983,     984,
     985,     986,     987,     988,     989,     990,
     991,     992,     993,     994,     995,     996,
     997,     998,     999,    1000,    1001,    1002,
    1003,    1004,    1005,
*NSET, NSET=Zmin_Floor
       1,       2,       3,       4,       5,       6,
       7,       8,       9,      10,      11,      12,
      13,      14,      15,      16,      17,      18,
      19,      20,      21,      22,      23,      24,
      25,      26,      27,      28,      29,      30,
      31,      32,      33,      34,      35,      36,
      37,      38,      39,      40,      41,      42,
      43,      44,      45,      46,      47,      48,
      49,      50,      51,      52,      53,      54,
      55,      56,      57,      58,      59,      60,
      61,      62,      63,      64,      65,      66,
      67,      68,      69,      70,      71,      72,
      73,      74,      75,      76,      77,      78,
      79,      80,      81,      82,      83,      84,
      85,      86,      87,      88,      89,      90,
      91,      92,      93,      94,      95,      96,
      97,      98,      99,     100,     101,     102,
     103,     104,     105,     106,     107,     108,
     109,     110,     111,     112,     113,     114,
     115,     116,     117,     118,     119,     120,
** ... 58 like lines cut
*NSET, NSET=Zmax_Floor
     466,     467,     468,     469,     470,     471,
     472,     473,     474,     475,     476,     477,
     478,     479,     480,     481,     482,     483,
     484,     485,     486,     487,     488,     489,
     490,     491,     492,     493,     494,     495,
     496,     497,     498,     499,     500,     501,
     502,     503,     504,     505,     506,     507,
     508,     509,     510,     511,     512,     513,
     514,     515,     516,     517,     518,     519,
     520,     521,     522,     523,     524,     525,
     526,     527,     528,     529,     530,     531,
     532,     533,     534,     535,     536,     537,
     538,     539,     540,     541,     542,     543,
     544,     545,     546,     547,     548,     549,
     550,     551,     552,     553,     554,     555,
     556,     557,     558,     559,     560,     561,
     562,     563,     564,     565,     566,     567,
     568,     569,     570,     571,     572,     573,
     574,     575,     576,     577,     578,     579,
     580,     581,     582,     583,     584,     585,
** ... 58 like lines cut
*NSET, NSET=XmaxZmax_Floor
     481,     511,     512,     513,     514,     515,
     516,     517,     518,     519,     520,     521,
     522,     523,     524,
*NSET, NSET=XminZmax_Floor
     466,     467,     468,     469,     470,     471,
     472,     473,     474,     475,     476,     477,
     478,     479,     480,
*NSET, NSET=YmaxZmax_Floor
     467,     481,     482,     483,     484,     485,
     486,     487,     488,     489,     490,     491,
     492,     493,     494,     495,     496,     497,
     498,     499,     500,     501,     502,     503,
     504,     505,     506,     507,     508,     509,
     510,
*NSET, NSET=YminZmax_Floor
     466,     511,     525,     526,     527,     528,
     529,     530,     531,     532,     533,     534,
     535,     536,     537,     538,     539,     540,
     541,     542,     543,     544,     545,     546,
     547,     548,     549,     550,     551,     552,
     553,
*NSET, NSET=Xmin_Roof
    1398,    1399,    1402,    1403,    1446,    1447,
    1448,    1449,    1450,    1451,    1452,    1453,
    1454,    1455,    1456,    1457,    1458,    1530,
    1531,    1532,    1533,    1534,    1535,    1536,
    1537,    1538,    1539,    1540,    1541,    1542,
    1572,    1574,    2359,    2360,    2361,    2362,
    2363,    2364,    2365,    2366,    2367,    2368,
    2369,    2370,    2371,
*NSET, NSET=Xmax_Roof
    1396,    1397,    1400,    1401,    1404,    1405,
    1406,    1407,    1408,    1409,    1410,    1411,
    1412,    1413,    1414,    1415,    1416,    1488,
    1489,    1490,    1491,    1492,    1493,    1494,
    1495,    1496,    1497,    1498,    1499,    1500,
    1573,    1575,    2401,    2402,    2403,    2404,
    2405,    2406,    2407,    2408,    2409,    2410,
    2411,    2412,    2413,
*NSET, NSET=Ymin_Roof
    1396,    1399,    1401,    1402,    1459,    1460,
    1461,    1462,    1463,    1464,    1465,    1466,
    1467,    1468,    1469,    1470,    1471,    1472,
    1473,    1474,    1475,    1476,    1477,    1478,
    1479,    1480,    1481,    1482,    1483,    1484,
    1485,    1486,    1487,    1501,    1502,    1503,
    1504,    1505,    1506,    1507,    1508,    1509,
    1510,    1511,    1512,    1513,    1514,    1515,
    1516,    1517,    1518,    1519,    1520,    1521,
    1522,    1523,    1524,    1525,    1526,    1527,
    1528,    1529,    1572,    1573,    2330,    2331,
    2332,    2333,    2334,    2335,    2336,    2337,
    2338,    2339,    2340,    2341,    2342,    2343,
    2344,    2345,    2346,    2347,    2348,    2349,
    2350,    2351,    2352,    2353,    2354,    2355,
    2356,    2357,    2358,
*NSET, NSET=Ymax_Roof
    1397,    1398,    1400,    1403,    1417,    1418,
    1419,    1420,    1421,    1422,    1423,    1424,
    1425,    1426,    1427,    1428,    1429,    1430,
    1431,    1432,    1433,    1434,    1435,    1436,
    1437,    1438,    1439,    1440,    1441,    1442,
    1443,    1444,    1445,    1543,    1544,    1545,
    1546,    1547,    1548,    1549,    1550,    1551,
    1552,    1553,    1554,    1555,    1556,    1557,
    1558,    1559,    1560,    1561,    1562,    1563,
    1564,    1565,    1566,    1567,    1568,    1569,
    1570,    1571,    1574,    1575,    2372,    2373,
    2374,    2375,    2376,    2377,    2378,    2379,
    2380,    2381,    2382,    2383,    2384,    2385,
    2386,    2387,    2388,    2389,    2390,    2391,
    2392,    2393,    2394,    2395,    2396,    2397,
    2398,    2399,    2400,
*NSET, NSET=Zmin_Roof
    1400,    1401,    1402,    1403,    1488,    1489,
    1490,    1491,    1492,    1493,    1494,    1495,
    1496,    1497,    1498,    1499,    1500,    1501,
    1502,    1503,    1504,    1505,    1506,    1507,
    1508,    1509,    1510,    1511,    1512,    1513,
    1514,    1515,    1516,    1517,    1518,    1519,
    1520,    1521,    1522,    1523,    1524,    1525,
    1526,    1527,    1528,    1529,    1530,    1531,
    1532,    1533,    1534,    1535,    1536,    1537,
    1538,    1539,    1540,    1541,    1542,    1543,
    1544,    1545,    1546,    1547,    1548,    1549,
    1550,    1551,    1552,    1553,    1554,    1555,
    1556,    1557,    1558,    1559,    1560,    1561,
    1562,    1563,    1564,    1565,    1566,    1567,
    1568,    1569,    1570,    1571,    1953,    1954,
    1955,    1956,    1957,    1958,    1959,    1960,
    1961,    1962,    1963,    1964,    1965,    1966,
    1967,    1968,    1969,    1970,    1971,    1972,
    1973,    1974,    1975,    1976,    1977,    1978,
    1979,    1980,    1981,    1982,    1983,    1984,
** ... 58 like lines cut
*NSET, NSET=Zmax_Roof
    1396,    1397,    1398,    1399,    1404,    1405,
    1406,    1407,    1408,    1409,    1410,    1411,
    1412,    1413,    1414,    1415,    1416,    1417,
    1418,    1419,    1420,    1421,    1422,    1423,
    1424,    1425,    1426,    1427,    1428,    1429,
    1430,    1431,    1432,    1433,    1434,    1435,
    1436,    1437,    1438,    1439,    1440,    1441,
    1442,    1443,    1444,    1445,    1446,    1447,
    1448,    1449,    1450,    1451,    1452,    1453,
    1454,    1455,    1456,    1457,    1458,    1459,
    1460,    1461,    1462,    1463,    1464,    1465,
    1466,    1467,    1468,    1469,    1470,    1471,
    1472,    1473,    1474,    1475,    1476,    1477,
    1478,    1479,    1480,    1481,    1482,    1483,
    1484,    1485,    1486,    1487,    1576,    1577,
    1578,    1579,    1580,    1581,    1582,    1583,
    1584,    1585,    1586,    1587,    1588,    1589,
    1590,    1591,    1592,    1593,    1594,    1595,
    1596,    1597,    1598,    1599,    1600,    1601,
    1602,    1603,    1604,    1605,    1606,    1607,
** ... 58 like lines cut
*NSET, NSET=YminZmin_Roof
    1401,    1402,    1501,    1502,    1503,    1504,
    1505,    1506,    1507,    1508,    1509,    1510,
    1511,    1512,    1513,    1514,    1515,    1516,
    1517,    1518,    1519,    1520,    1521,    1522,
    1523,    1524,    1525,    1526,    1527,    1528,
    1529,
*NSET, NSET=YmaxZmin_Roof
    1400,    1403,    1543,    1544,    1545,    1546,
    1547,    1548,    1549,    1550,    1551,    1552,
    1553,    1554,    1555,    1556,    1557,    1558,
    1559,    1560,    1561,    1562,    1563,    1564,
    1565,    1566,    1567,    1568,    1569,    1570,
    1571,
*NSET, NSET=Fracture_Floor
       1,       2,       3,       4,       5,       6,
       7,       8,       9,      10,      11,      12,
      13,      14,      15,      16,      17,      18,
      19,      20,      21,      22,      23,      24,
      25,      26,      27,      28,      29,      30,
      31,      32,      33,      34,      35,      36,
      37,      38,      39,      40,      41,      42,
      43,      44,      45,      46,      47,      48,
      49,      50,      51,      52,      53,      54,
      55,      56,      57,      58,      59,      60,
      61,      62,      63,      64,      65,      66,
      67,      68,      69,      70,      71,      72,
      73,      74,      75,      76,      77,      78,
      79,      80,      81,      82,      83,      84,
      85,      86,      87,      88,      89,      90,
      91,      92,      93,      94,      95,      96,
      97,      98,      99,     100,     101,     102,
     103,     104,     105,     106,     107,     108,
     109,     110,     111,     112,     113,     114,
     115,     116,     117,     118,     119,     120,
** ... 213 like lines cut
*NSET, NSET=Fracture_Roof
    1396,    1397,    1398,    1399,    1400,    1401,
    1402,    1403,    1404,    1405,    1406,    1407,
    1408,    1409,    1410,    1411,    1412,    1413,
    1414,    1415,    1416,    1417,    1418,    1419,
    1420,    1421,    1422,    1423,    1424,    1425,
    1426,    1427,    1428,    1429,    1430,    1431,
    1432,    1433,    1434,    1435,    1436,    1437,
    1438,    1439,    1440,    1441,    1442,    1443,
    1444,    1445,    1446,    1447,    1448,    1449,
    1450,    1451,    1452,    1453,    1454,    1455,
    1456,    1457,    1458,    1459,    1460,    1461,
    1462,    1463,    1464,    1465,    1466,    1467,
    1468,    1469,    1470,    1471,    1472,    1473,
    1474,    1475,    1476,    1477,    1478,    1479,
    1480,    1481,    1482,    1483,    1484,    1485,
    1486,    1487,    1488,    1489,    1490,    1491,
    1492,    1493,    1494,    1495,    1496,    1497,
    1498,    1499,    1500,    1501,    1502,    1503,
    1504,    1505,    1506,    1507,    1508,    1509,
    1510,    1511,    1512,    1513,    1514,    1515,
** ... 213 like lines cut
**
********************************** P R O P E R T I E S ************************
*SOLID SECTION, ELSET=Fracture_Floor, MATERIAL=Default-Steel
*SOLID SECTION, ELSET=Fracture_Roof, MATERIAL=Default-Steel
**
*END PART
**
**
**
********************************** E N D   P A R T S **********************************
**
**
********************************** A S S E M B L Y ************************************
**
*ASSEMBLY, NAME=ASSEMBLY1
**
*INSTANCE, NAME=Part-Default_1, PART=Part-Default
*END INSTANCE
**
*END ASSEMBLY
**
**
**
*MATERIAL, NAME = Default-Steel
*ELASTIC, TYPE=ISOTROPIC
2.068000e+05, 2.900000e-01
*DENSITY
7.000000e-06
*CONDUCTIVITY,TYPE=ISO
4.500000e-02
*SPECIFIC HEAT
5.000000e+02
**
**
************************************** H I S T O R Y *************************************
**
*PREPRINT
**
**************************************** S T E P 1 ***************************************
*STEP,INC=100,NAME=Default Set
**
*STATIC
1, 1, 1e-05, 1
**
**
**
**
*END STEP
