*HEADING
cubit(mesh_6x6_7x7.inp): 02/24/2012: 16:25:03
version: 13.0
**
********************************** P A R T S **********************************
*PART, NAME=Part-Default
**
********************************** N O D E S **********************************
*NODE, NSET=ALLNODES
       1,   -1.000000e+00,   -5.000000e-01,    5.000000e-01
       2,   -1.000000e+00,   -5.000000e-01,    3.333333e-01
       3,   -1.000000e+00,   -3.333333e-01,    3.333333e-01
       4,   -1.000000e+00,   -3.333333e-01,    5.000000e-01
       5,   -8.333333e-01,   -5.000000e-01,    5.000000e-01
       6,   -8.333333e-01,   -5.000000e-01,    3.333333e-01
       7,   -8.333333e-01,   -3.333333e-01,    3.333333e-01
       8,   -8.333333e-01,   -3.333333e-01,    5.000000e-01
       9,   -1.000000e+00,   -5.000000e-01,    1.666667e-01
      10,   -1.000000e+00,   -3.333333e-01,    1.666667e-01
      11,   -8.333333e-01,   -5.000000e-01,    1.666667e-01
      12,   -8.333333e-01,   -3.333333e-01,    1.666667e-01
      13,   -1.000000e+00,   -5.000000e-01,    0.000000e+00
      14,   -1.000000e+00,   -3.333333e-01,    0.000000e+00
      15,   -8.333333e-01,   -5.000000e-01,   -1.387779e-17
      16,   -8.333333e-01,   -3.333333e-01,    4.047688e-17
      17,   -1.000000e+00,   -5.000000e-01,   -1.666667e-01
      18,   -1.000000e+00,   -3.333333e-01,   -1.666667e-01
      19,   -8.333333e-01,   -5.000000e-01,   -1.666667e-01
      20,   -8.333333e-01,   -3.333333e-01,   -1.666667e-01
** ... 835 like lines cut
**
********************************** E L E M E N T S ****************************
*ELEMENT, TYPE=C3D8R, ELSET=EB1
       1,       1,       2,       3,       4,       5,       6,       7,       8
       2,       2,       9,      10,       3,       6,      11,      12,       7
       3,       9,      13,      14,      10,      11,      15,      16,      12
       4,      13,      17,      18,      14,      15,      19,      20,      16
       5,      17,      21,      22,      18,      19,      23,      24,      20
       6,      21,      25,      26,      22,      23,      27,      28,      24
       7,       4,       3,      29,      30,       8,       7,      31,      32
       8,       3,      10,      33,      29,       7,      12,      34,      31
       9,      10,      14,      35,      33,      12,      16,      36,      34
      10,      14,      18,      37,      35,      16,      20,      38,      36
      11,      18,      22,      39,      37,      20,      24,      40,      38
      12,      22,      26,      41,      39,      24,      28,      42,      40
      13,      30,      29,      43,      44,      32,      31,      45,      46
      14,      29,      33,      47,      43,      31,      34,      48,      45
      15,      33,      35,      49,      47,      34,      36,      50,      48
      16,      35,      37,      51,      49,      36,      38,      52,      50
      17,      37,      39,      53,      51,      38,      40,      54,      52
      18,      39,      41,      55,      53,      40,      42,      56,      54
      19,      44,      43,      57,      58,      46,      45,      59,      60
      20,      43,      47,      61,      57,      45,      48,      62,      59
** ... 196 like lines cut
*ELEMENT, TYPE=C3D8R, ELSET=EB2
     217,     344,     345,     346,     347,     348,     349,     350,     351
     218,     345,     352,     353,     346,     349,     354,     355,     350
     219,     352,     356,     357,     353,     354,     358,     359,     355
     220,     356,     360,     361,     357,     358,     362,     363,     359
     221,     360,     364,     365,     361,     362,     366,     367,     363
     222,     364,     368,     369,     365,     366,     370,     371,     367
     223,     368,     372,     373,     369,     370,     374,     375,     371
     224,     347,     346,     376,     377,     351,     350,     378,     379
     225,     346,     353,     380,     376,     350,     355,     381,     378
     226,     353,     357,     382,     380,     355,     359,     383,     381
     227,     357,     361,     384,     382,     359,     363,     385,     383
     228,     361,     365,     386,     384,     363,     367,     387,     385
     229,     365,     369,     388,     386,     367,     371,     389,     387
     230,     369,     373,     390,     388,     371,     375,     391,     389
     231,     377,     376,     392,     393,     379,     378,     394,     395
     232,     376,     380,     396,     392,     378,     381,     397,     394
     233,     380,     382,     398,     396,     381,     383,     399,     397
     234,     382,     384,     400,     398,     383,     385,     401,     399
     235,     384,     386,     402,     400,     385,     387,     403,     401
     236,     386,     388,     404,     402,     387,     389,     405,     403
** ... 323 like lines cut
**
********************************** N O D E S E T S **********************************
*NSET, NSET=NS1
      85,      89,      91,      93,      95,      26,
      41,      55,      69,      83,       2,       9,
      13,      17,      21,      72,      58,      44,
      30,       4,      86,      97,      25,       1,
      71,      75,      77,      79,      81,      57,
      61,      63,      65,      67,      43,      47,
      49,      51,      53,      29,      33,      35,
      37,      39,       3,      10,      14,      18,
      22,
*NSET, NSET=NS2
     793,     796,     798,     800,     802,     804,
     847,     839,     831,     823,     815,     807,
     848,     850,     851,     852,     853,     854,
     795,     809,     817,     825,     833,     841,
     792,     806,     855,     849,     794,     797,
     799,     801,     803,     805,     808,     810,
     811,     812,     813,     814,     816,     818,
     819,     820,     821,     822,     824,     826,
     827,     828,     829,     830,     832,     834,
     835,     836,     837,     838,     840,     842,
     843,     844,     845,     846,
**
********************************** P R O P E R T I E S ************************
*SOLID SECTION, ELSET=EB1, MATERIAL=Default-Steel
*SOLID SECTION, ELSET=EB2, MATERIAL=Default-Steel
**
*END PART
**
**
**
********************************** E N D   P A R T S **********************************
**
**
********************************** A S S E M B L Y ************************************
**
*ASSEMBLY, NAME=ASSEMBLY1
**
*INSTANCE, NAME=Part-Default_1, PART=Part-Default
*END INSTANCE
**
*END ASSEMBLY
**
**
**
*MATERIAL, NAME = Default-Steel
*ELASTIC, TYPE=ISOTROPIC
2.068000e+05, 2.900000e-01
*DENSITY
7.000000e-06
*CONDUCTIVITY,TYPE=ISO
4.500000e-02
*SPECIFIC HEAT
5.000000e+02
**
**
************************************** H I S T O R Y *************************************
**
*PREPRINT
**
**************************************** S T E P 1 ***************************************
*STEP,INC=100,NAME=Default Set
**
*STATIC
1, 1, 1e-05, 1
**
**
**
**
*END STEP
*NSET, NSET=BLOCK1
    127, 32, 276, 90, 206,
    118, 71, 102, 331, 16,
    55, 84, 233, 259, 194,
    57, 220, 316, 163, 89,
    175, 31, 35, 11, 208,
    93, 292, 325, 29, 291,
    199, 114, 226, 58, 211,
    153, 15, 337, 101, 73,
    340, 76, 311, 62, 67,
    241, 198, 139, 129, 327,
    320, 280, 273, 236, 249,
    218, 202, 168, 184, 135,
    14, 145, 49, 178, 24,
    285, 140, 124, 104, 131,
    181, 234, 314, 307, 154,
    23, 96, 159, 326, 160,
    47, 8, 98, 335, 37,
    43, 270, 195, 5, 21,
    288, 193, 119, 324, 180,
    244, 162, 246, 240, 74,
** ... 49 like lines cut
*NSET, NSET=BLOCK2
    559, 828, 443, 620, 565,
    520, 358, 850, 737, 560,
    767, 580, 532, 798, 730,
    805, 512, 437, 463, 517,
    458, 424, 368, 451, 454,
    395, 846, 722, 634, 611,
    584, 849, 578, 492, 347,
    842, 695, 511, 665, 728,
    434, 742, 378, 572, 350,
    675, 374, 540, 442, 429,
    684, 649, 527, 431, 689,
    382, 648, 642, 409, 833,
    571, 812, 795, 825, 489,
    389, 794, 585, 727, 548,
    495, 739, 732, 674, 811,
    662, 418, 783, 758, 471,
    706, 622, 465, 361, 819,
    348, 776, 789, 834, 772,
    627, 412, 385, 594, 502,
    801, 715, 830, 754, 364,
** ... 83 like lines cut
