*HEADING
cubit(mesh_8x8_10x10.inp): 02/24/2012: 16:19:22
version: 13.0
**
********************************** P A R T S **********************************
*PART, NAME=Part-Default
**
********************************** N O D E S **********************************
*NODE, NSET=ALLNODES
       1,   -1.000000e+00,   -5.000000e-01,    5.000000e-01
       2,   -1.000000e+00,   -5.000000e-01,    4.000000e-01
       3,   -1.000000e+00,   -4.000000e-01,    4.000000e-01
       4,   -1.000000e+00,   -4.000000e-01,    5.000000e-01
       5,   -9.000000e-01,   -5.000000e-01,    5.000000e-01
       6,   -9.000000e-01,   -5.000000e-01,    4.000000e-01
       7,   -9.000000e-01,   -4.000000e-01,    4.000000e-01
       8,   -9.000000e-01,   -4.000000e-01,    5.000000e-01
       9,   -1.000000e+00,   -5.000000e-01,    3.000000e-01
      10,   -1.000000e+00,   -4.000000e-01,    3.000000e-01
      11,   -9.000000e-01,   -5.000000e-01,    3.000000e-01
      12,   -9.000000e-01,   -4.000000e-01,    3.000000e-01
      13,   -1.000000e+00,   -5.000000e-01,    2.000000e-01
      14,   -1.000000e+00,   -4.000000e-01,    2.000000e-01
      15,   -9.000000e-01,   -5.000000e-01,    2.000000e-01
      16,   -9.000000e-01,   -4.000000e-01,    2.000000e-01
      17,   -1.000000e+00,   -5.000000e-01,    1.000000e-01
      18,   -1.000000e+00,   -4.000000e-01,    1.000000e-01
      19,   -9.000000e-01,   -5.000000e-01,    1.000000e-01
      20,   -9.000000e-01,   -4.000000e-01,    1.000000e-01
** ... 2040 like lines cut
**
********************************** E L E M E N T S ****************************
*ELEMENT, TYPE=C3D8R, ELSET=EB1
       1,       1,       2,       3,       4,       5,       6,       7,       8
       2,       2,       9,      10,       3,       6,      11,      12,       7
       3,       9,      13,      14,      10,      11,      15,      16,      12
       4,      13,      17,      18,      14,      15,      19,      20,      16
       5,      17,      21,      22,      18,      19,      23,      24,      20
       6,      21,      25,      26,      22,      23,      27,      28,      24
       7,      25,      29,      30,      26,      27,      31,      32,      28
       8,      29,      33,      34,      30,      31,      35,      36,      32
       9,      33,      37,      38,      34,      35,      39,      40,      36
      10,      37,      41,      42,      38,      39,      43,      44,      40
      11,       4,       3,      45,      46,       8,       7,      47,      48
      12,       3,      10,      49,      45,       7,      12,      50,      47
      13,      10,      14,      51,      49,      12,      16,      52,      50
      14,      14,      18,      53,      51,      16,      20,      54,      52
      15,      18,      22,      55,      53,      20,      24,      56,      54
      16,      22,      26,      57,      55,      24,      28,      58,      56
      17,      26,      30,      59,      57,      28,      32,      60,      58
      18,      30,      34,      61,      59,      32,      36,      62,      60
      19,      34,      38,      63,      61,      36,      40,      64,      62
      20,      38,      42,      65,      63,      40,      44,      66,      64
** ... 980 like lines cut
*ELEMENT, TYPE=C3D8R, ELSET=EB2
    1001,    1332,    1333,    1334,    1335,    1336,    1337,    1338,    1339
    1002,    1333,    1340,    1341,    1334,    1337,    1342,    1343,    1338
    1003,    1340,    1344,    1345,    1341,    1342,    1346,    1347,    1343
    1004,    1344,    1348,    1349,    1345,    1346,    1350,    1351,    1347
    1005,    1348,    1352,    1353,    1349,    1350,    1354,    1355,    1351
    1006,    1352,    1356,    1357,    1353,    1354,    1358,    1359,    1355
    1007,    1356,    1360,    1361,    1357,    1358,    1362,    1363,    1359
    1008,    1360,    1364,    1365,    1361,    1362,    1366,    1367,    1363
    1009,    1335,    1334,    1368,    1369,    1339,    1338,    1370,    1371
    1010,    1334,    1341,    1372,    1368,    1338,    1343,    1373,    1370
    1011,    1341,    1345,    1374,    1372,    1343,    1347,    1375,    1373
    1012,    1345,    1349,    1376,    1374,    1347,    1351,    1377,    1375
    1013,    1349,    1353,    1378,    1376,    1351,    1355,    1379,    1377
    1014,    1353,    1357,    1380,    1378,    1355,    1359,    1381,    1379
    1015,    1357,    1361,    1382,    1380,    1359,    1363,    1383,    1381
    1016,    1361,    1365,    1384,    1382,    1363,    1367,    1385,    1383
    1017,    1369,    1368,    1386,    1387,    1371,    1370,    1388,    1389
    1018,    1368,    1372,    1390,    1386,    1370,    1373,    1391,    1388
    1019,    1372,    1374,    1392,    1390,    1373,    1375,    1393,    1391
    1020,    1374,    1376,    1394,    1392,    1375,    1377,    1395,    1393
** ... 492 like lines cut
**
********************************** N O D E S E T S **********************************
*NSET, NSET=NS1
     221,     225,     227,     229,     231,     233,
     235,     237,     239,      42,      65,      87,
     109,     131,     153,     175,     197,     219,
       2,       9,      13,      17,      21,      25,
      29,      33,      37,     200,     178,     156,
     134,     112,      90,      68,      46,       4,
     222,     241,      41,       1,     199,     203,
     205,     207,     209,     211,     213,     215,
     217,     177,     181,     183,     185,     187,
     189,     191,     193,     195,     155,     159,
     161,     163,     165,     167,     169,     171,
     173,     133,     137,     139,     141,     143,
     145,     147,     149,     151,     111,     115,
     117,     119,     121,     123,     125,     127,
     129,      89,      93,      95,      97,      99,
     101,     103,     105,     107,      67,      71,
      73,      75,      77,      79,      81,      83,
      85,      45,      49,      51,      53,      55,
      57,      59,      61,      63,       3,      10,
      14,      18,      22,      26,      30,      34,
      38,
*NSET, NSET=NS2
    1981,    1984,    1986,    1988,    1990,    1992,
    1994,    2051,    2042,    2033,    2024,    2015,
    2006,    1997,    2052,    2054,    2055,    2056,
    2057,    2058,    2059,    1983,    1999,    2008,
    2017,    2026,    2035,    2044,    1980,    1996,
    2060,    2053,    1982,    1985,    1987,    1989,
    1991,    1993,    1995,    1998,    2000,    2001,
    2002,    2003,    2004,    2005,    2007,    2009,
    2010,    2011,    2012,    2013,    2014,    2016,
    2018,    2019,    2020,    2021,    2022,    2023,
    2025,    2027,    2028,    2029,    2030,    2031,
    2032,    2034,    2036,    2037,    2038,    2039,
    2040,    2041,    2043,    2045,    2046,    2047,
    2048,    2049,    2050,
**
********************************** P R O P E R T I E S ************************
*SOLID SECTION, ELSET=EB1, MATERIAL=Default-Steel
*SOLID SECTION, ELSET=EB2, MATERIAL=Default-Steel
**
*END PART
**
**
**
********************************** E N D   P A R T S **********************************
**
**
********************************** A S S E M B L Y ************************************
**
*ASSEMBLY, NAME=ASSEMBLY1
**
*INSTANCE, NAME=Part-Default_1, PART=Part-Default
*END INSTANCE
**
*END ASSEMBLY
**
**
**
*MATERIAL, NAME = Default-Steel
*ELASTIC, TYPE=ISOTROPIC
2.068000e+05, 2.900000e-01
*DENSITY
7.000000e-06
*CONDUCTIVITY,TYPE=ISO
4.500000e-02
*SPECIFIC HEAT
5.000000e+02
**
**
************************************** H I S T O R Y *************************************
**
*PREPRINT
**
**************************************** S T E P 1 ***************************************
*STEP,INC=100,NAME=Default Set
**
*STATIC
1, 1, 1e-05, 1
**
**
**
**
*END STEP
*NSET, NSET=BLOCK1
    1049, 127, 71, 882, 1050,
    560, 1178, 898, 798, 1031,
    512, 1273, 463, 517, 458,
    451, 454, 1250, 722, 634,
    1109, 578, 695, 978, 728,
    1244, 742, 378, 325, 29,
    889, 350, 1233, 540, 1162,
    58, 684, 211, 153, 861,
    337, 101, 340, 76, 311,
    982, 571, 1214, 1190, 825,
    389, 917, 495, 1171, 1123,
    966, 1322, 992, 758, 236,
    706, 218, 1172, 14, 1259,
    834, 285, 234, 594, 1216,
    1135, 1203, 96, 1068, 486,
    160, 569, 8, 98, 1278,
    1048, 1000, 1061, 43, 686,
    391, 943, 288, 193, 119,
    586, 180, 410, 246, 999,
    690, 1168, 61, 1180, 1185,
** ... 247 like lines cut
*NSET, NSET=BLOCK2
    1588, 1801, 1674, 1648, 1481,
    1659, 1488, 1795, 1387, 1932,
    1768, 1785, 1364, 1408, 1363,
    1689, 1989, 1861, 1630, 1597,
    1553, 1638, 1654, 1969, 1398,
    1810, 1615, 1732, 1430, 1870,
    1546, 1448, 1924, 1506, 1573,
    1472, 1660, 2020, 1703, 1345,
    1999, 1792, 1816, 1772, 1954,
    1357, 1518, 1608, 2046, 2052,
    1876, 1759, 1429, 1438, 1974,
    2032, 1903, 1934, 1916, 2002,
    1374, 1722, 1528, 1778, 1425,
    1692, 1667, 1859, 1845, 1678,
    1445, 1354, 1886, 1821, 2045,
    1992, 1972, 1381, 1842, 1466,
    1396, 1760, 2054, 2033, 1728,
    1887, 1645, 1555, 1460, 1375,
    1389, 1585, 1877, 1755, 1854,
    1498, 1446, 1741, 1607, 1767,
** ... 126 like lines cut
