*HEADING
cubit(mesh_2x2_3x3.inp): 02/24/2012: 16:30:30
version: 13.0
**
********************************** P A R T S **********************************
*PART, NAME=Part-Default
**
********************************** N O D E S **********************************
*NODE, NSET=ALLNODES
       1,   -1.000000e+00,   -5.000000e-01,    5.000000e-01
       2,   -1.000000e+00,   -5.000000e-01,    1.666667e-01
       3,   -1.000000e+00,   -1.666667e-01,    1.666667e-01
       4,   -1.000000e+00,   -1.666667e-01,    5.000000e-01
       5,   -6.666667e-01,   -5.000000e-01,    5.000000e-01
       6,   -6.666667e-01,   -5.000000e-01,    1.666667e-01
       7,   -6.666667e-01,   -1.666667e-01,    1.666667e-01
       8,   -6.666667e-01,   -1.666667e-01,    5.000000e-01
       9,   -1.000000e+00,   -5.000000e-01,   -1.666667e-01
      10,   -1.000000e+00,   -1.666667e-01,   -1.666667e-01
      11,   -6.666667e-01,   -5.000000e-01,   -1.666667e-01
      12,   -6.666667e-01,   -1.666667e-01,   -1.666667e-01
      13,   -1.000000e+00,   -5.000000e-01,   -5.000000e-01
      14,   -1.000000e+00,   -1.666667e-01,   -5.000000e-01
      15,   -6.666667e-01,   -5.000000e-01,   -5.000000e-01
      16,   -6.666667e-01,   -1.666667e-01,   -5.000000e-01
      17,   -1.000000e+00,    1.666667e-01,    1.666667e-01
      18,   -1.000000e+00,    1.666667e-01,    5.000000e-01
      19,   -6.666667e-01,    1.666667e-01,    1.666667e-01
      20,   -6.666667e-01,    1.666667e-01,    5.000000e-01
** ... 71 like lines cut
**
********************************** E L E M E N T S ****************************
*ELEMENT, TYPE=C3D8R, ELSET=EB1
       1,       1,       2,       3,       4,       5,       6,       7,       8
       2,       2,       9,      10,       3,       6,      11,      12,       7
       3,       9,      13,      14,      10,      11,      15,      16,      12
       4,       4,       3,      17,      18,       8,       7,      19,      20
       5,       3,      10,      21,      17,       7,      12,      22,      19
       6,      10,      14,      23,      21,      12,      16,      24,      22
       7,      18,      17,      25,      26,      20,      19,      27,      28
       8,      17,      21,      29,      25,      19,      22,      30,      27
       9,      21,      23,      31,      29,      22,      24,      32,      30
      10,       5,       6,       7,       8,      33,      34,      35,      36
      11,       6,      11,      12,       7,      34,      37,      38,      35
      12,      11,      15,      16,      12,      37,      39,      40,      38
      13,       8,       7,      19,      20,      36,      35,      41,      42
      14,       7,      12,      22,      19,      35,      38,      43,      41
      15,      12,      16,      24,      22,      38,      40,      44,      43
      16,      20,      19,      27,      28,      42,      41,      45,      46
      17,      19,      22,      30,      27,      41,      43,      47,      45
      18,      22,      24,      32,      30,      43,      44,      48,      47
      19,      33,      34,      35,      36,      49,      50,      51,      52
      20,      34,      37,      38,      35,      50,      53,      54,      51
** ... 7 like lines cut
*ELEMENT, TYPE=C3D8R, ELSET=EB2
      28,      65,      66,      67,      68,      69,      70,      71,      72
      29,      66,      73,      74,      67,      70,      75,      76,      71
      30,      68,      67,      77,      78,      72,      71,      79,      80
      31,      67,      74,      81,      77,      71,      76,      82,      79
      32,      69,      70,      71,      72,      83,      84,      85,      86
      33,      70,      75,      76,      71,      84,      87,      88,      85
      34,      72,      71,      79,      80,      86,      85,      89,      90
      35,      71,      76,      82,      79,      85,      88,      91,      89
**
********************************** N O D E S E T S **********************************
*NSET, NSET=NS1
      25,      29,      14,      23,       2,       9,
      18,       4,      26,      31,      13,       1,
      17,      21,       3,      10,
*NSET, NSET=NS2
      84,      88,      89,      86,      83,      87,
      91,      90,      85,
**
********************************** P R O P E R T I E S ************************
*SOLID SECTION, ELSET=EB1, MATERIAL=Default-Steel
*SOLID SECTION, ELSET=EB2, MATERIAL=Default-Steel
**
*END PART
**
**
**
********************************** E N D   P A R T S **********************************
**
**
********************************** A S S E M B L Y ************************************
**
*ASSEMBLY, NAME=ASSEMBLY1
**
*INSTANCE, NAME=Part-Default_1, PART=Part-Default
*END INSTANCE
**
*END ASSEMBLY
**
**
**
*MATERIAL, NAME = Default-Steel
*ELASTIC, TYPE=ISOTROPIC
2.068000e+05, 2.900000e-01
*DENSITY
7.000000e-06
*CONDUCTIVITY,TYPE=ISO
4.500000e-02
*SPECIFIC HEAT
5.000000e+02
**
**
************************************** H I S T O R Y *************************************
**
*PREPRINT
**
**************************************** S T E P 1 ***************************************
*STEP,INC=100,NAME=Default Set
**
*STATIC
1, 1, 1e-05, 1
**
**
**
**
*END STEP
*NSET, NSET=BLOCK1
     33, 32, 63, 21, 7,
    26, 18, 16, 44, 55,
    27, 57, 61, 20, 10,
    31, 35, 11, 48, 29,
    50, 39, 64, 58, 41,
    12, 15, 52, 60, 56,
    45, 19, 62, 54, 2,
    17, 1, 30, 25, 28,
    40, 14, 59, 49, 24,
    53, 22, 42, 46, 23,
    13, 6, 3, 36, 9,
    51, 47, 8, 38, 4,
    34, 37, 43, 5,
*NSET, NSET=BLOCK2
     67, 90, 71, 70, 91,
    80, 68, 78, 79, 87,
    88, 77, 72, 65, 82,
    84, 74, 85, 83, 75,
    81, 69, 89, 66, 73,
    86, 76,
