*HEADING
cubit(/g/g92/fu4/GEOS/Training/10_Disk/HexMesh.inp): 10/22/2013: 17:17:24
version: 13.2
**
********************************** P A R T S **********************************
*PART, NAME=Part-Default
**
********************************** N O D E S **********************************
*NODE, NSET=ALLNODES
       1,    1.000000e+01,    0.000000e+00,   -2.000000e+01
       2,    6.123234e-16,    1.000000e+01,   -2.000000e+01
       3,    9.951847e+00,    9.801714e-01,   -2.000000e+01
       4,    9.807853e+00,    1.950903e+00,   -2.000000e+01
       5,    9.569403e+00,    2.902847e+00,   -2.000000e+01
       6,    9.238795e+00,    3.826834e+00,   -2.000000e+01
       7,    8.819213e+00,    4.713967e+00,   -2.000000e+01
       8,    8.314696e+00,    5.555702e+00,   -2.000000e+01
       9,    7.730105e+00,    6.343933e+00,   -2.000000e+01
      10,    7.071068e+00,    7.071068e+00,   -2.000000e+01
      11,    6.343933e+00,    7.730105e+00,   -2.000000e+01
      12,    5.555702e+00,    8.314696e+00,   -2.000000e+01
      13,    4.713967e+00,    8.819213e+00,   -2.000000e+01
      14,    3.826834e+00,    9.238795e+00,   -2.000000e+01
      15,    2.902847e+00,    9.569403e+00,   -2.000000e+01
      16,    1.950903e+00,    9.807853e+00,   -2.000000e+01
      17,    9.801714e-01,    9.951847e+00,   -2.000000e+01
      18,    0.000000e+00,    0.000000e+00,   -2.000000e+01
      19,    0.000000e+00,    9.000000e+00,   -2.000000e+01
      20,    0.000000e+00,    8.000000e+00,   -2.000000e+01
** ... 12198 like lines cut
**
********************************** E L E M E N T S ****************************
*ELEMENT, TYPE=C3D8, ELSET=EB1
       1,      35,      36,      53,      46,     300,     302,     304,     306
       2,      36,       1,       3,      53,     302,     308,     310,     304
       3,      46,      53,      54,      47,     306,     304,     312,     314
       4,      53,       3,       4,      54,     304,     310,     316,     312
       5,      47,      54,      55,      48,     314,     312,     318,     320
       6,      54,       4,       5,      55,     312,     316,     322,     318
       7,      48,      55,      56,      49,     320,     318,     324,     326
       8,      55,       5,       6,      56,     318,     322,     328,     324
       9,      49,      56,      57,      50,     326,     324,     330,     332
      10,      56,       6,       7,      57,     324,     328,     334,     330
      11,      50,      57,      58,      51,     332,     330,     336,     338
      12,      57,       7,       8,      58,     330,     334,     340,     336
      13,      51,      58,      59,      52,     338,     336,     342,     344
      14,      58,       8,       9,      59,     336,     340,     346,     342
      15,      52,      59,      38,      37,     344,     342,     348,     350
      16,      59,       9,      10,      38,     342,     346,     352,     348
      17,      10,      11,      60,      38,     352,     354,     356,     348
      18,      11,      12,      61,      60,     354,     358,     360,     356
      19,      12,      13,      62,      61,     358,     362,     364,     360
      20,      13,      14,      63,      62,     362,     366,     368,     364
** ... 10660 like lines cut
**
********************************** P R O P E R T I E S ************************
*SOLID SECTION, ELSET=EB1, MATERIAL=Default-Steel
**
*END PART
**
**
**
********************************** E N D   P A R T S **********************************
**
**
********************************** A S S E M B L Y ************************************
**
*ASSEMBLY, NAME=ASSEMBLY1
**
*INSTANCE, NAME=Part-Default_1, PART=Part-Default
*END INSTANCE
**
*END ASSEMBLY
**
**
**
*MATERIAL, NAME = Default-Steel
*ELASTIC, TYPE=ISOTROPIC
2.068000e+05, 2.900000e-01
*DENSITY
7.000000e-06
*CONDUCTIVITY,TYPE=ISO
4.500000e-02
*SPECIFIC HEAT
5.000000e+02
**
**
************************************** H I S T O R Y *************************************
**
*PREPRINT
**
**************************************** S T E P 1 ***************************************
*STEP,INC=100,NAME=Default Set
**
*STATIC
1, 1, 1e-05, 1
**
**
**
**
*END STEP
