*HEADING
cubit(fu4/TestRuns/run129_ThermalStress/2_Ellipse/Ellipse3D.inp): 05/28/2014: 14
version: 13.2
**
********************************** P A R T S **********************************
*PART, NAME=Part-Default
**
********************************** N O D E S **********************************
*NODE, NSET=ALLNODES
       1,    6.000000e+00,    3.673940e-16,    0.000000e+00
       2,    5.962833e+00,    1.555868e+00,    0.000000e+00
       3,    4.917670e+00,    1.529647e+00,    0.000000e+00
       4,    4.438175e+00,    4.030112e-01,    0.000000e+00
       5,    6.000000e+00,    3.673940e-16,    1.000000e+00
       6,    5.962833e+00,    1.555868e+00,    1.000000e+00
       7,    4.917670e+00,    1.529647e+00,    1.000000e+00
       8,    4.438175e+00,    4.030112e-01,    1.000000e+00
       9,    5.850271e+00,    3.108094e+00,    0.000000e+00
      10,    4.377803e+00,    2.633722e+00,    0.000000e+00
      11,    5.850271e+00,    3.108094e+00,    1.000000e+00
      12,    4.377803e+00,    2.633722e+00,    1.000000e+00
      13,    5.658986e+00,    4.652575e+00,    0.000000e+00
      14,    4.013155e+00,    4.176298e+00,    0.000000e+00
      15,    5.658986e+00,    4.652575e+00,    1.000000e+00
      16,    4.013155e+00,    4.176298e+00,    1.000000e+00
      17,    5.382907e+00,    6.184133e+00,    0.000000e+00
      18,    3.701402e+00,    5.741319e+00,    0.000000e+00
      19,    5.382907e+00,    6.184133e+00,    1.000000e+00
      20,    3.701402e+00,    5.741319e+00,    1.000000e+00
** ... 1457 like lines cut
**
********************************** E L E M E N T S ****************************
*ELEMENT, TYPE=C3D8, ELSET=EB1
       1,       1,       2,       3,       4,       5,       6,       7,       8
       2,       2,       9,      10,       3,       6,      11,      12,       7
       3,       9,      13,      14,      10,      11,      15,      16,      12
       4,      13,      17,      18,      14,      15,      19,      20,      16
       5,      17,      21,      22,      18,      19,      23,      24,      20
       6,      21,      25,      26,      22,      23,      27,      28,      24
       7,      25,      29,      30,      26,      27,      31,      32,      28
       8,      29,      33,      34,      30,      31,      35,      36,      32
       9,      33,      37,      38,      34,      35,      39,      40,      36
      10,      37,      41,      42,      38,      39,      43,      44,      40
      11,      41,      45,      46,      42,      43,      47,      48,      44
      12,      45,      49,      50,      46,      47,      51,      52,      48
      13,      49,      53,      54,      50,      51,      55,      56,      52
      14,      53,      57,      58,      54,      55,      59,      60,      56
      15,      57,      61,      62,      58,      59,      63,      64,      60
      16,      61,      65,      66,      62,      63,      67,      68,      64
      17,      65,      69,      70,      66,      67,      71,      72,      68
      18,      69,      73,      74,      70,      71,      75,      76,      72
      19,      73,      77,      78,      74,      75,      79,      80,      76
      20,      77,      81,      82,      78,      79,      83,      84,      80
** ... 643 like lines cut
**
********************************** P R O P E R T I E S ************************
*SOLID SECTION, ELSET=EB1, MATERIAL=Default-Steel
**
*END PART
**
**
**
********************************** E N D   P A R T S **********************************
**
**
********************************** A S S E M B L Y ************************************
**
*ASSEMBLY, NAME=ASSEMBLY1
**
*INSTANCE, NAME=Part-Default_1, PART=Part-Default
*END INSTANCE
**
*END ASSEMBLY
**
**
**
*MATERIAL, NAME = Default-Steel
*ELASTIC, TYPE=ISOTROPIC
2.068000e+05, 2.900000e-01
*DENSITY
7.000000e-06
*CONDUCTIVITY,TYPE=ISO
4.500000e-02
*SPECIFIC HEAT
5.000000e+02
**
**
************************************** H I S T O R Y *************************************
**
*PREPRINT
**
**************************************** S T E P 1 ***************************************
*STEP,INC=100,NAME=Default Set
**
*STATIC
1, 1, 1e-05, 1
**
**
**
**
*END STEP
