*HEADING
cubit(gpac/trunk/test/full_tests/AdvectionSim/ApertureSmall.inp): 03/06/2012: 16
version: 13.0
**
********************************** P A R T S **********************************
*PART, NAME=Part-Default
**
********************************** N O D E S **********************************
*NODE, NSET=ALLNODES
       1,    1.350000e+00,    3.090000e+00,    0.000000e+00
       2,    1.350000e+00,    0.000000e+00,    0.000000e+00
       3,    1.350000e+00,    2.990323e+00,    0.000000e+00
       4,    1.350000e+00,    2.890645e+00,    0.000000e+00
       5,    1.350000e+00,    2.790968e+00,    0.000000e+00
       6,    1.350000e+00,    2.691290e+00,    0.000000e+00
       7,    1.350000e+00,    2.591613e+00,    0.000000e+00
       8,    1.350000e+00,    2.491935e+00,    0.000000e+00
       9,    1.350000e+00,    2.392258e+00,    0.000000e+00
      10,    1.350000e+00,    2.292581e+00,    0.000000e+00
      11,    1.350000e+00,    2.192903e+00,    0.000000e+00
      12,    1.350000e+00,    2.093226e+00,    0.000000e+00
      13,    1.350000e+00,    1.993548e+00,    0.000000e+00
      14,    1.350000e+00,    1.893871e+00,    0.000000e+00
      15,    1.350000e+00,    1.794194e+00,    0.000000e+00
      16,    1.350000e+00,    1.694516e+00,    0.000000e+00
      17,    1.350000e+00,    1.594839e+00,    0.000000e+00
      18,    1.350000e+00,    1.495161e+00,    0.000000e+00
      19,    1.350000e+00,    1.395484e+00,    0.000000e+00
      20,    1.350000e+00,    1.295806e+00,    0.000000e+00
** ... 1420 like lines cut
**
********************************** E L E M E N T S ****************************
*ELEMENT, TYPE=C3D8R, ELSET=fracture1
       1,     527,     961,    1006,     557,     558,     963,    1051,     931
       2,     961,      33,      48,    1006,     963,      46,     480,    1051
       3,     557,    1006,    1005,     556,     931,    1051,    1052,     932
       4,    1006,      48,      49,    1005,    1051,     480,     479,    1052
       5,     556,    1005,    1004,     555,     932,    1052,    1053,     933
       6,    1005,      49,      50,    1004,    1052,     479,     478,    1053
       7,     555,    1004,    1003,     554,     933,    1053,    1054,     934
       8,    1004,      50,      51,    1003,    1053,     478,     477,    1054
       9,     554,    1003,    1002,     553,     934,    1054,    1055,     935
      10,    1003,      51,      52,    1002,    1054,     477,     476,    1055
      11,     553,    1002,    1001,     552,     935,    1055,    1056,     936
      12,    1002,      52,      53,    1001,    1055,     476,     475,    1056
      13,     552,    1001,    1000,     551,     936,    1056,    1057,     937
      14,    1001,      53,      54,    1000,    1056,     475,     474,    1057
      15,     551,    1000,     999,     550,     937,    1057,    1058,     938
      16,    1000,      54,      55,     999,    1057,     474,     473,    1058
      17,     550,     999,     998,     549,     938,    1058,    1059,     939
      18,     999,      55,      56,     998,    1058,     473,     472,    1059
      19,     549,     998,     997,     548,     939,    1059,    1060,     940
      20,     998,      56,      57,     997,    1059,     472,     471,    1060
** ... 848 like lines cut
**
********************************** N O D E S E T S **********************************
*NSET, NSET=Xmin
      33,      47,      48,      49,      50,      51,
      52,      53,      54,      55,      56,      57,
      58,      59,      60,      61,      62,      63,
      64,      65,      66,      67,      68,      69,
      70,      71,      72,      73,      74,      75,
      76,      77,     513,     527,     528,     529,
     530,     531,     532,     533,     534,     535,
     536,     537,     538,     539,     540,     541,
     542,     543,     544,     545,     546,     547,
     548,     549,     550,     551,     552,     553,
     554,     555,     556,     557,     961,     976,
     977,     978,     979,     980,     981,     982,
     983,     984,     985,     986,     987,     988,
     989,     990,     991,     992,     993,     994,
     995,     996,     997,     998,     999,    1000,
    1001,    1002,    1003,    1004,    1005,    1006,
*NSET, NSET=Xmax
       1,       2,       3,       4,       5,       6,
       7,       8,       9,      10,      11,      12,
      13,      14,      15,      16,      17,      18,
      19,      20,      21,      22,      23,      24,
      25,      26,      27,      28,      29,      30,
      31,      32,     481,     482,     483,     484,
     485,     486,     487,     488,     489,     490,
     491,     492,     493,     494,     495,     496,
     497,     498,     499,     500,     501,     502,
     503,     504,     505,     506,     507,     508,
     509,     510,     511,     512,     962,    1007,
    1021,    1022,    1023,    1024,    1025,    1026,
    1027,    1028,    1029,    1030,    1031,    1032,
    1033,    1034,    1035,    1036,    1037,    1038,
    1039,    1040,    1041,    1042,    1043,    1044,
    1045,    1046,    1047,    1048,    1049,    1050,
*NSET, NSET=Ymin
       2,      33,      34,      35,      36,      37,
      38,      39,      40,      41,      42,      43,
      44,      45,      46,     481,     527,     558,
     559,     560,     561,     562,     563,     564,
     565,     566,     567,     568,     569,     570,
     961,     962,     963,     964,     965,     966,
     967,     968,     969,     970,     971,     972,
     973,     974,     975,
*NSET, NSET=Ymax
       1,      47,      78,      79,      80,      81,
      82,      83,      84,      85,      86,      87,
      88,      89,      90,     482,     513,     514,
     515,     516,     517,     518,     519,     520,
     521,     522,     523,     524,     525,     526,
     976,    1007,    1008,    1009,    1010,    1011,
    1012,    1013,    1014,    1015,    1016,    1017,
    1018,    1019,    1020,
*NSET, NSET=Zmin
       1,       2,       3,       4,       5,       6,
       7,       8,       9,      10,      11,      12,
      13,      14,      15,      16,      17,      18,
      19,      20,      21,      22,      23,      24,
      25,      26,      27,      28,      29,      30,
      31,      32,      33,      34,      35,      36,
      37,      38,      39,      40,      41,      42,
      43,      44,      45,      46,      47,      48,
      49,      50,      51,      52,      53,      54,
      55,      56,      57,      58,      59,      60,
      61,      62,      63,      64,      65,      66,
      67,      68,      69,      70,      71,      72,
      73,      74,      75,      76,      77,      78,
      79,      80,      81,      82,      83,      84,
      85,      86,      87,      88,      89,      90,
      91,      92,      93,      94,      95,      96,
      97,      98,      99,     100,     101,     102,
     103,     104,     105,     106,     107,     108,
     109,     110,     111,     112,     113,     114,
     115,     116,     117,     118,     119,     120,
** ... 60 like lines cut
*NSET, NSET=Zmax
     481,     482,     483,     484,     485,     486,
     487,     488,     489,     490,     491,     492,
     493,     494,     495,     496,     497,     498,
     499,     500,     501,     502,     503,     504,
     505,     506,     507,     508,     509,     510,
     511,     512,     513,     514,     515,     516,
     517,     518,     519,     520,     521,     522,
     523,     524,     525,     526,     527,     528,
     529,     530,     531,     532,     533,     534,
     535,     536,     537,     538,     539,     540,
     541,     542,     543,     544,     545,     546,
     547,     548,     549,     550,     551,     552,
     553,     554,     555,     556,     557,     558,
     559,     560,     561,     562,     563,     564,
     565,     566,     567,     568,     569,     570,
     571,     572,     573,     574,     575,     576,
     577,     578,     579,     580,     581,     582,
     583,     584,     585,     586,     587,     588,
     589,     590,     591,     592,     593,     594,
     595,     596,     597,     598,     599,     600,
** ... 60 like lines cut
*NSET, NSET=YmaxZmax
     482,     513,     514,     515,     516,     517,
     518,     519,     520,     521,     522,     523,
     524,     525,     526,
*NSET, NSET=YminZmax
     481,     527,     558,     559,     560,     561,
     562,     563,     564,     565,     566,     567,
     568,     569,     570,
*NSET, NSET=XmaxZmax
     481,     482,     483,     484,     485,     486,
     487,     488,     489,     490,     491,     492,
     493,     494,     495,     496,     497,     498,
     499,     500,     501,     502,     503,     504,
     505,     506,     507,     508,     509,     510,
     511,     512,
*NSET, NSET=XminZmax
     513,     527,     528,     529,     530,     531,
     532,     533,     534,     535,     536,     537,
     538,     539,     540,     541,     542,     543,
     544,     545,     546,     547,     548,     549,
     550,     551,     552,     553,     554,     555,
     556,     557,
**
********************************** P R O P E R T I E S ************************
*SOLID SECTION, ELSET=fracture1, MATERIAL=Default-Steel
**
*END PART
**
**
**
********************************** E N D   P A R T S **********************************
**
**
********************************** A S S E M B L Y ************************************
**
*ASSEMBLY, NAME=ASSEMBLY1
**
*INSTANCE, NAME=Part-Default_1, PART=Part-Default
*END INSTANCE
**
*END ASSEMBLY
**
**
**
*MATERIAL, NAME = Default-Steel
*ELASTIC, TYPE=ISOTROPIC
2.068000e+05, 2.900000e-01
*DENSITY
7.000000e-06
*CONDUCTIVITY,TYPE=ISO
4.500000e-02
*SPECIFIC HEAT
5.000000e+02
**
**
************************************** H I S T O R Y *************************************
**
*PREPRINT
**
**************************************** S T E P 1 ***************************************
*STEP,INC=100,NAME=Default Set
**
*STATIC
1, 1, 1e-05, 1
**
**
**
**
*END STEP
